36

C	0	0	0
C	0	1.42	0
C	1.23	-0.71	0
C	1.23	-2.13	0
C	0	2.84	0
C	0	4.26	0
C	1.23	2.13	0
C	1.23	0.71	0
C	0	8.52	0
C	0	9.94	0
C	1.23	7.81	0
C	1.23	6.39	0
C	2.46	8.52	0
C	2.46	9.94	0
C	3.69	7.81	0
C	3.69	6.39	0
C	2.46	11.36	0
C	2.46	12.78	0
C	3.69	10.65	0
C	3.69	9.23	0
C	2.46	17.04	0
C	2.46	18.46	0
C	3.69	16.33	0
C	3.69	14.91	0
C	7.38	17.04	0
C	7.38	18.46	0
C	8.61	16.33	0
C	8.61	14.91	0
C	7.38	19.88	0
C	7.38	21.3	0
C	8.61	19.17	0
C	8.61	17.75	0
C	7.38	25.56	0
C	7.38	26.98	0
C	8.61	24.85	0
C	8.61	23.43	0
